untitled
  ChemPy            3D                             0

 93 97  0  0  1  0  0  0  0  0999 V2000
  -11.9764   34.0271   54.2841 H   0  0  0  0  0  0  0  0  0  0  0  0
  -13.3956   37.6692   51.9860 H   0  0  0  0  0  0  0  0  0  0  0  0
  -13.7789   34.3672   55.0682 H   0  0  0  0  0  0  0  0  0  0  0  0
  -11.5390   36.0784   54.5951 H   0  0  0  0  0  0  0  0  0  0  0  0
  -12.4694   35.5163   58.6446 C   0  0  0  0  0  0  0  0  0  0  0  0
  -12.3230   34.5200   70.6670 C   0  0  0  0  0  0  0  0  0  0  0  0
  -12.1310   33.3293   61.8005 N   0  0  0  0  0  0  0  0  0  0  0  0
  -12.0960   33.8890   69.4970 N   0  0  0  0  0  0  0  0  0  0  0  0
  -12.8450   36.0450   73.1380 O   0  0  0  0  0  0  0  0  0  0  0  0
  -12.2645   34.5869   60.9719 C   0  0  0  0  0  0  0  0  0  0  0  0
  -12.7590   35.8440   70.7120 C   0  0  0  0  0  0  0  0  0  0  0  0
  -12.9980   36.9240   52.5397 N   0  0  0  0  0  0  0  0  0  0  0  0
  -12.0580   34.0170   64.6240 N   0  0  0  0  0  0  0  0  0  0  0  0
  -13.4850   37.9600   71.9600 O   0  0  0  0  0  0  0  0  0  0  0  0
  -11.9241   34.3495   59.4888 C   0  0  0  0  0  0  0  0  0  0  0  0
  -13.0190   36.5740   72.0250 C   0  0  0  0  0  0  0  0  0  0  0  0
  -13.3820   37.7610   69.3640 O   0  0  0  0  0  0  0  0  0  0  0  0
  -12.2331   35.2248   57.1511 C   0  0  0  0  0  0  0  0  0  0  0  0
  -12.9490   36.4830   69.5000 C   0  0  0  0  0  0  0  0  0  0  0  0
  -12.8304   36.3649   56.3055 C   0  0  0  0  0  0  0  0  0  0  0  0
  -12.7210   35.8310   68.3240 C   0  0  0  0  0  0  0  0  0  0  0  0
   -9.8979   36.2569   50.5454 N   0  0  0  0  0  0  0  0  0  0  0  0
  -12.6074   36.0679   54.8110 C   0  0  0  0  0  0  0  0  0  0  0  0
  -12.9480   36.5510   67.1660 C   0  0  0  0  0  0  0  0  0  0  0  0
  -11.2795   34.1816   50.1311 N   0  0  0  0  0  0  0  0  0  0  0  0
  -13.2107   37.2057   53.9667 C   0  0  0  0  0  0  0  0  0  0  0  0
  -12.7360   35.9420   65.9420 C   0  0  0  0  0  0  0  0  0  0  0  0
  -13.0739   34.1641   51.9193 N   0  0  0  0  0  0  0  0  0  0  0  0
  -11.5566   36.8263   52.2683 C   0  0  0  0  0  0  0  0  0  0  0  0
  -12.3030   34.5970   65.8890 C   0  0  0  0  0  0  0  0  0  0  0  0
  -11.3364   36.4227   50.7985 C   0  0  0  0  0  0  0  0  0  0  0  0
  -12.0630   33.8780   67.0760 C   0  0  0  0  0  0  0  0  0  0  0  0
  -12.2890   34.5090   68.3120 C   0  0  0  0  0  0  0  0  0  0  0  0
  -11.6290   32.5050   69.5640 C   0  0  0  0  0  0  0  0  0  0  0  0
  -11.4230   32.1630   71.0420 C   0  0  0  0  0  0  0  0  0  0  0  0
  -12.7432   31.1939   69.2639 C   0  0  0  0  0  0  0  0  0  0  0  0
  -11.4130   34.8940   63.6420 C   0  0  0  0  0  0  0  0  0  0  0  0
  -10.9860   34.0960   62.4190 C   0  0  0  0  0  0  0  0  0  0  0  0
  -12.8860   32.5580   62.8570 C   0  0  0  0  0  0  0  0  0  0  0  0
  -12.3890   32.6290   64.3110 C   0  0  0  0  0  0  0  0  0  0  0  0
   -9.6927   35.7923   49.1659 C   0  0  0  0  0  0  0  0  0  0  0  0
  -10.4546   34.4717   48.9494 C   0  0  0  0  0  0  0  0  0  0  0  0
  -12.3374   33.2274   49.7689 C   0  0  0  0  0  0  0  0  0  0  0  0
  -13.3464   33.1146   50.9268 C   0  0  0  0  0  0  0  0  0  0  0  0
  -13.7242   33.8175   53.1913 C   0  0  0  0  0  0  0  0  0  0  0  0
  -12.9641   34.4830   54.3535 C   0  0  0  0  0  0  0  0  0  0  0  0
  -12.9900   36.7020   64.8460 F   0  0  0  0  0  0  0  0  0  0  0  0
  -12.1617   33.9817   71.6010 H   0  0  0  0  0  0  0  0  0  0  0  0
  -13.2895   37.5849   67.2166 H   0  0  0  0  0  0  0  0  0  0  0  0
  -11.7076   32.8483   67.0371 H   0  0  0  0  0  0  0  0  0  0  0  0
  -13.5377   35.6304   58.8285 H   0  0  0  0  0  0  0  0  0  0  0  0
  -11.5886   35.3435   61.3705 H   0  0  0  0  0  0  0  0  0  0  0  0
  -14.3037   37.9126   72.4590 H   0  0  0  0  0  0  0  0  0  0  0  0
  -12.3777   33.4160   59.1559 H   0  0  0  0  0  0  0  0  0  0  0  0
  -12.7126   34.2832   56.8835 H   0  0  0  0  0  0  0  0  0  0  0  0
  -12.3439   37.3048   56.5663 H   0  0  0  0  0  0  0  0  0  0  0  0
   -9.4282   37.1414   50.6767 H   0  0  0  0  0  0  0  0  0  0  0  0
  -10.7007   33.7839   50.8570 H   0  0  0  0  0  0  0  0  0  0  0  0
  -12.7282   38.1477   54.2275 H   0  0  0  0  0  0  0  0  0  0  0  0
  -13.4352   35.0461   51.5852 H   0  0  0  0  0  0  0  0  0  0  0  0
  -11.1133   36.0753   52.9222 H   0  0  0  0  0  0  0  0  0  0  0  0
  -11.7339   37.1989   50.1446 H   0  0  0  0  0  0  0  0  0  0  0  0
  -11.0589   32.3817   68.6432 H   0  0  0  0  0  0  0  0  0  0  0  0
  -11.4929   32.9439   71.7992 H   0  0  0  0  0  0  0  0  0  0  0  0
  -12.8076   30.6366   70.0808 H   0  0  0  0  0  0  0  0  0  0  0  0
  -10.5358   35.3569   64.0941 H   0  0  0  0  0  0  0  0  0  0  0  0
  -10.5825   34.7834   61.6755 H   0  0  0  0  0  0  0  0  0  0  0  0
  -12.8723   31.5087   62.5621 H   0  0  0  0  0  0  0  0  0  0  0  0
  -13.1702   32.2764   64.9844 H   0  0  0  0  0  0  0  0  0  0  0  0
   -8.6289   35.6317   48.9904 H   0  0  0  0  0  0  0  0  0  0  0  0
   -9.7420   33.6615   48.7952 H   0  0  0  0  0  0  0  0  0  0  0  0
  -11.8952   32.2501   49.5750 H   0  0  0  0  0  0  0  0  0  0  0  0
  -14.3587   33.2333   50.5402 H   0  0  0  0  0  0  0  0  0  0  0  0
  -13.7147   32.7354   53.3222 H   0  0  0  0  0  0  0  0  0  0  0  0
  -11.9535   36.4359   58.9208 H   0  0  0  0  0  0  0  0  0  0  0  0
  -13.3032   34.9130   61.0269 H   0  0  0  0  0  0  0  0  0  0  0  0
  -10.8423   34.2891   59.3695 H   0  0  0  0  0  0  0  0  0  0  0  0
  -11.1624   35.1530   56.9598 H   0  0  0  0  0  0  0  0  0  0  0  0
  -13.8993   36.4424   56.5044 H   0  0  0  0  0  0  0  0  0  0  0  0
  -14.2798   37.2783   54.1667 H   0  0  0  0  0  0  0  0  0  0  0  0
  -11.0863   37.7919   52.4538 H   0  0  0  0  0  0  0  0  0  0  0  0
  -11.8505   35.4824   50.5996 H   0  0  0  0  0  0  0  0  0  0  0  0
  -10.6380   31.6763   71.6208 H   0  0  0  0  0  0  0  0  0  0  0  0
  -13.7462   31.7931   70.4784 H   0  0  0  0  0  0  0  0  0  0  0  0
  -12.1227   35.6615   63.3333 H   0  0  0  0  0  0  0  0  0  0  0  0
  -10.2380   33.3715   62.7410 H   0  0  0  0  0  0  0  0  0  0  0  0
  -13.8662   33.0340   62.8861 H   0  0  0  0  0  0  0  0  0  0  0  0
  -11.5074   31.9998   64.4337 H   0  0  0  0  0  0  0  0  0  0  0  0
  -10.0655   36.5444   48.4706 H   0  0  0  0  0  0  0  0  0  0  0  0
  -11.0960   34.5625   48.0727 H   0  0  0  0  0  0  0  0  0  0  0  0
  -12.8506   33.5775   48.8733 H   0  0  0  0  0  0  0  0  0  0  0  0
  -13.2504   32.1362   51.3976 H   0  0  0  0  0  0  0  0  0  0  0  0
  -14.7549   34.1718   53.1809 H   0  0  0  0  0  0  0  0  0  0  0  0
  1 46  1  0  0  0  0
  2 12  1  0  0  0  0
  3 46  1  0  0  0  0
  4 23  1  0  0  0  0
  5 15  1  0  0  0  0
  5 18  1  0  0  0  0
  5 51  1  0  0  0  0
  5 75  1  0  0  0  0
  6  8  1  0  0  0  0
  6 11  2  0  0  0  0
  6 48  1  0  0  0  0
  7 10  1  0  0  0  0
  7 38  1  0  0  0  0
  7 39  1  0  0  0  0
  8 33  1  0  0  0  0
  8 34  1  0  0  0  0
  9 16  2  0  0  0  0
 10 15  1  0  0  0  0
 10 52  1  0  0  0  0
 10 76  1  0  0  0  0
 11 16  1  0  0  0  0
 11 19  1  0  0  0  0
 12 26  1  0  0  0  0
 12 29  1  0  0  0  0
 13 30  1  0  0  0  0
 13 37  1  0  0  0  0
 13 40  1  0  0  0  0
 14 16  1  0  0  0  0
 14 53  1  0  0  0  0
 15 54  1  0  0  0  0
 15 77  1  0  0  0  0
 17 19  2  0  0  0  0
 18 20  1  0  0  0  0
 18 55  1  0  0  0  0
 18 78  1  0  0  0  0
 19 21  1  0  0  0  0
 20 23  1  0  0  0  0
 20 56  1  0  0  0  0
 20 79  1  0  0  0  0
 21 24  4  0  0  0  0
 21 33  1  0  0  0  0
 22 31  1  0  0  0  0
 22 41  1  0  0  0  0
 22 57  1  0  0  0  0
 23 26  1  0  0  0  0
 23 46  1  0  0  0  0
 24 27  1  0  0  0  0
 24 49  1  0  0  0  0
 25 42  1  0  0  0  0
 25 43  1  0  0  0  0
 25 58  1  0  0  0  0
 26 59  1  0  0  0  0
 26 80  1  0  0  0  0
 27 30  4  0  0  0  0
 27 47  1  0  0  0  0
 28 44  1  0  0  0  0
 28 45  1  0  0  0  0
 28 60  1  0  0  0  0
 29 31  1  0  0  0  0
 29 61  1  0  0  0  0
 29 81  1  0  0  0  0
 30 32  1  0  0  0  0
 31 62  1  0  0  0  0
 31 82  1  0  0  0  0
 32 33  4  0  0  0  0
 32 50  1  0  0  0  0
 34 35  1  0  0  0  0
 34 36  1  0  0  0  0
 34 63  1  0  0  0  0
 35 36  1  0  0  0  0
 35 64  1  0  0  0  0
 35 83  1  0  0  0  0
 36 65  1  0  0  0  0
 36 84  1  0  0  0  0
 37 38  1  0  0  0  0
 37 66  1  0  0  0  0
 37 85  1  0  0  0  0
 38 67  1  0  0  0  0
 38 86  1  0  0  0  0
 39 40  1  0  0  0  0
 39 68  1  0  0  0  0
 39 87  1  0  0  0  0
 40 69  1  0  0  0  0
 40 88  1  0  0  0  0
 41 42  1  0  0  0  0
 41 70  1  0  0  0  0
 41 89  1  0  0  0  0
 42 71  1  0  0  0  0
 42 90  1  0  0  0  0
 43 44  1  0  0  0  0
 43 72  1  0  0  0  0
 43 91  1  0  0  0  0
 44 73  1  0  0  0  0
 44 92  1  0  0  0  0
 45 46  1  0  0  0  0
 45 74  1  0  0  0  0
 45 93  1  0  0  0  0
M  END
$$$$
